tests/resources/cases/case6_transfer.raw
0,   100.00, 33, 0, 1, 60.00     / PSS(R)E-33.12   FRI, APR 08 2022  11:23
2009 SUMMER CASE - LIGHT LOAD (45% OF 50/50 PEAK)

   107,'1           ', 345.0000,2, 702, 900,   1,1.01700, -13.5110,1.10000,0.90000,1.10000,0.90000
 73103,'MEEKVL J    ', 345.0000,2, 701, 900,   1,1.03796, -14.9754,1.10000,0.90000,1.10000,0.90000
 73104,'FRSTBDGE    ', 345.0000,2, 701, 900,   1,1.03302, -15.1487,1.10000,0.90000,1.10000,0.90000
 73105,'LONG MTN    ', 345.0000,2, 701, 900,   1,1.03058, -15.1206,1.10000,0.90000,1.10000,0.90000
 73106,'SOUTHGTN    ', 345.0000,3, 701, 900,   1,1.01700, -14.9776,1.10000,0.90000,1.10000,0.90000
 73107,'SCOVL RK    ', 345.0000,2, 702, 900,   1,1.01700, -13.5406,1.10000,0.90000,1.10000,0.90000
0 / END OF BUS DATA, BEGIN LOAD DATA
 73104,'1 ',1, 701, 900,    15.000,     2.000,     0.000,     0.000,     0.000,     0.000,   1,1,0
 73106,'2 ',1, 701, 900,    16.000,     1.000,     0.000,     0.000,     0.000,     0.000,   1,1,0
 73107,'3 ',1, 702,   1,     0.500,    20.000,     0.000,     0.000,     0.000,     0.000,   1,1,0
0 / END OF LOAD DATA, BEGIN FIXED SHUNT DATA
 73104,'1 ',1,     0.000,     2.000
 73106,'1 ',1,     0.000,     5.000
0 / END OF FIXED SHUNT DATA, BEGIN GENERATOR DATA
   107,'1 ',     1.000,    -1.599,     4.000,    -4.000,1.01700,     0,   100.000, 0.00000E+0, 1.00000E+0, 0.00000E+0, 0.00000E+0,1.00000,1,  100.0,     5.000,     0.000,   1,1.0000
 73103,'2 ',     3.000,    -2.000,    12.000,    -2.000,1.00000,     0,   100.000, 0.00000E+0, 1.00000E+0, 0.00000E+0, 0.00000E+0,1.00000,1,  100.0,    11.000,     0.000,  99,1.0000
 73104,'5 ',     3.000,    -5.000,     5.000,    -5.000,1.01700,     0,   100.000, 0.00000E+0, 1.00000E+0, 0.00000E+0, 0.00000E+0,1.00000,1,  100.0,     1.000,     0.000,  99,1.0000
 73105,'1 ',     3.000,    -1.000,     8.000,    -1.000,1.00000,     0,   100.000, 0.00000E+0, 1.00000E+0, 0.00000E+0, 0.00000E+0,1.00000,1,  100.0,     7.000,     0.000,  99,1.0000
 73106,'3 ',    13.140,    -5.425,    40.000,   -40.000,1.01700,     0,   100.000, 0.00000E+0, 1.00000E+0, 0.00000E+0, 0.00000E+0,1.00000,1,  100.0,    40.000,     0.000,   1,1.0000
 73106,'6 ',     2.463,    -1.017,     5.000,   -20.000,1.01700,     0,   100.000, 0.00000E+0, 1.00000E+0, 0.00000E+0, 0.00000E+0,1.00000,1,  100.0,     8.000,     0.000,   1,1.0000
 73107,'4 ',     3.000,     4.000,     6.000,    -6.000,1.01700,     0,   100.000, 0.00000E+0, 1.00000E+0, 0.00000E+0, 0.00000E+0,1.00000,1,  100.0,     5.000,     0.000,   1,1.0000,   0,   1.0,   0,   1.0,   0,   1.0,1, 1.0000
 73107,'7 ',     3.000,     4.000,     6.000,    -6.000,1.01700,     0,   100.000, 0.00000E+0, 1.00000E+0, 0.00000E+0, 0.00000E+0,1.00000,1,  100.0,     5.000,     0.000,   1,1.0000
0 / END OF GENERATOR DATA, BEGIN BRANCH DATA
   107, 73107,'1 ', 2.40000E-2, 1.50000E-2,   0.00000,  200.00,  200.00,  200.00,  0.00000,  0.00000,  0.00000,  0.00000,1,1,   0.00,   1,1.0000
 73103, 73104,'1 ', 6.53000E-3, 4.05000E-2,   0.00548,  198.00,  218.00,  227.00,  0.00000,  0.00000,  0.00000,  0.00000,1,1,   0.00,  99,1.0000
 73104, 73105,'1 ', 1.02000E-3, 1.63500E-2,   0.17073, 1240.00, 1604.00, 1936.00,  0.00000,  0.00000,  0.00000,  0.00000,1,1,   0.00,  99,1.0000
 73105, 73106,'1 ', 1.28000E-2, 5.80400E-2,   0.00723,  160.00,  175.00,  198.00,  0.00000,  0.00000,  0.00000,  0.00000,1,1,   0.00,  99,1.0000
0 / END OF BRANCH DATA, BEGIN TRANSFORMER DATA
 73103, 73106,     0,'1 ',1,1,1, 0.00000E+00, 0.00000E+00,2,'8R-1X       ',1,   1,1.0000,   0,1.0000,   0,1.0000,   0,1.0000,'            '
 4.70000E-4, 2.03900E-2,   100.00
1.02500,   0.000,   0.000,   648.00,   726.00,   900.00, 1,      0, 1.02500, 0.92500, 1.03234, 1.01984,  17, 0, 0.00000, 0.00000,  0.000
1.00000,   0.000
 73107, 73103,     0,'1 ',1,1,1, 0.00000E+00, 0.00000E+00,1,'            ',1,  99,1.0000,   0,1.0000,   0,1.0000,   0,1.0000,'            '
 1.34400E-2, 3.84970E-1,   100.00
1.01068,   0.000,   0.000,     0.00,     0.00,     0.00, 1,      0, 1.12195, 0.91796, 1.03625, 1.02375,  34, 0, 0.00000, 0.00000,  0.000
1.00000,   0.000
0 / END OF TRANSFORMER DATA, BEGIN AREA DATA
 701,     0,    -7.500,     0.800,'PJM 5-BUSSY '
 702, 73107,     7.500,     0.800,'PJM 6-BUSSY '
0 / END OF AREA DATA, BEGIN TWO-TERMINAL DC DATA
0 / END OF TWO-TERMINAL DC DATA, BEGIN VSC DC LINE DATA
0 / END OF VSC DC LINE DATA, BEGIN IMPEDANCE CORRECTION DATA
0 / END OF IMPEDANCE CORRECTION DATA, BEGIN MULTI-TERMINAL DC DATA
0 / END OF MULTI-TERMINAL DC DATA, BEGIN MULTI-SECTION LINE DATA
0 / END OF MULTI-SECTION LINE DATA, BEGIN ZONE DATA
 900,'CT_TR       '
0 / END OF ZONE DATA, BEGIN INTER-AREA TRANSFER DATA
 702, 701,'A',     7.50
0 / END OF INTER-AREA TRANSFER DATA, BEGIN OWNER DATA
   1,'CENT HUD    '
  99,'OUTSIDE     '
0 / END OF OWNER DATA, BEGIN FACTS DEVICE DATA
0 / END OF FACTS DEVICE DATA, BEGIN SWITCHED SHUNT DATA
 73104,1,0,1,1.04300,1.01000,     0,  100.0,'            ',    0.00, 1,   -3.00, 1,    3.00
 73106,0,0,1,1.03000,1.00500,     0,  100.0,'            ',    0.00, 1,   -3.00, 1,    3.00
 73107,1,0,1,1.03400,1.01000,     0,  100.0,'            ',    5.00, 1,   -5.00, 1,    5.00
0 / END OF SWITCHED SHUNT DATA, BEGIN GNE DATA
0 / END OF GNE DATA, BEGIN INDUCTION MACHINE DATA
0 / END OF INDUCTION MACHINE DATA
Q
